Circuit: * E:\1. Undergraduate Studies\1. Course Materials\Year_3_Semester_1\ECE331\ece331-labs\lab4-sims\differential-op-amp-cmmr.asc

Model "ald1102": Oxide thickness thinner than recommended for a level 2 MOSFET.
Instance "m6": Length shorter than recommended for a level 2 MOSFET.
Instance "m5": Length shorter than recommended for a level 2 MOSFET.
Model "ald1101": Oxide thickness thinner than recommended for a level 2 MOSFET.
Instance "m4": Length shorter than recommended for a level 2 MOSFET.
Instance "m3": Length shorter than recommended for a level 2 MOSFET.
Instance "m2": Length shorter than recommended for a level 2 MOSFET.
Instance "m1": Length shorter than recommended for a level 2 MOSFET.
V4: Missing value, assumed 0V @ DC

Date: Mon Nov 04 19:38:18 2019
Total elapsed time: 0.327 seconds.

tnom = 27
temp = 27
method = trap
totiter = 730
traniter = 0
tranpoints = 0
accept = 0
rejected = 0
matrix size = 20
fillins = 6
solver = Normal
Matrix Compiler1: 1.77 KB object code size  1.2/0.7/[0.5]
Matrix Compiler2: 2.01 KB object code size  0.7/0.9/[0.6]

