Circuit: * Z:\home\pranshumalik14\Documents\academics\ece331\ece331-labs\termtest-sims\term-test-ald1101-sim.asc

Model "ald1101": Oxide thickness thinner than recommended for a level 2 MOSFET.
Instance "m1": Length shorter than recommended for a level 2 MOSFET.
Direct Newton iteration for .op point succeeded.

Date: Wed Nov 27 19:59:09 2019
Total elapsed time: 0.066 seconds.

tnom = 27
temp = 27
method = trap
totiter = 7
traniter = 0
tranpoints = 0
accept = 0
rejected = 0
matrix size = 9
fillins = 0
solver = Normal
Matrix Compiler1:      22 opcodes
Matrix Compiler2: 633 bytes object code size
