Circuit: * E:\1. Undergraduate Studies\1. Course Materials\Year_3_Semester_1\ECE331\term-test-sim.asc

Instance "m1": Length shorter than recommended for a level 1 MOSFET.
Vs: Missing value, assumed 0V @ DC

Date: Tue Nov 26 18:42:22 2019
Total elapsed time: 0.580 seconds.

tnom = 27
temp = 27
method = trap
totiter = 10004
traniter = 0
tranpoints = 0
accept = 0
rejected = 0
matrix size = 7
fillins = 0
solver = Normal
Matrix Compiler1: 276 bytes object code size  0.4/0.2/[0.2]
Matrix Compiler2: 487 bytes object code size  0.3/0.3/[0.2]

