Circuit: * Z:\home\pranshumalik14\Documents\academics\ece331\ece331-labs\termtest-sims\term-test-ideal-sim.asc

Instance "m1": Length shorter than recommended for a level 1 MOSFET.
No AC stimulus found:
     Set the value of a current or voltage source to "AC 1."
     to make it behave as a signal generator for AC analysis.
Direct Newton iteration for .op point succeeded.

Date: Wed Nov 27 01:13:43 2019
Total elapsed time: 0.067 seconds.

tnom = 27
temp = 27
method = trap
totiter = 8
traniter = 0
tranpoints = 0
accept = 0
rejected = 0
matrix size = 7
fillins = 0
solver = Normal
Matrix Compiler1:      16 opcodes
Matrix Compiler2: 487 bytes object code size
