Circuit: * C:\users\pranshumalik14\My Documents\academics\ece331-labs\lab3-sims\class_b_amp_transient.asc

Direct Newton iteration failed to find .op point.  (Use ".option noopiter" to skip.)
Starting Gmin stepping
Gmin = 10
Gmin = 1.07374
Gmin = 0.115292
Gmin = 0.0123794
Gmin = 0.00132923
Gmin = 0.000142725
Gmin = 1.5325e-005
Gmin = 1.6455e-006
Gmin = 1.76685e-007
Gmin = 1.89714e-008
Gmin = 2.03704e-009
Gmin = 2.18725e-010
Gmin = 2.34854e-011
Gmin = 2.52173e-012
Gmin = 2.70769e-013
Gmin = 0
Gmin stepping succeeded in finding the operating point.


Date: Sun Oct 20 16:08:30 2019
Total elapsed time: 0.104 seconds.

tnom = 27
temp = 27
method = modified trap
totiter = 7938
traniter = 7576
tranpoints = 2357
accept = 1717
rejected = 640
matrix size = 32
fillins = 10
solver = Normal
Matrix Compiler1: 2.03 KB object code size  1.3/0.8/[0.7]
Matrix Compiler2: off  [1.6]/1.8/1.7

