Circuit: * E:\1. Undergraduate Studies\1. Course Materials\Year_3_Semester_1\ECE331\ece331-labs\lab3-sims\class_b_amp_transient.asc

Direct Newton iteration failed to find .op point.  (Use ".option noopiter" to skip.)
Starting Gmin stepping
Gmin = 10
Gmin = 1.07374
Gmin = 0.115292
Gmin = 0.0123794
Gmin = 0.00132923
Gmin = 0.000142725
Gmin = 1.5325e-005
Gmin = 1.6455e-006
Gmin = 1.76685e-007
Gmin = 1.89714e-008
Gmin = 2.03704e-009
Gmin = 2.18725e-010
Gmin = 2.34854e-011
Gmin = 2.52173e-012
Gmin = 2.70769e-013
Gmin = 0
Gmin stepping succeeded in finding the operating point.


Date: Tue Oct 22 00:02:00 2019
Total elapsed time: 0.652 seconds.

tnom = 27
temp = 27
method = modified trap
totiter = 7954
traniter = 7592
tranpoints = 2360
accept = 1717
rejected = 643
matrix size = 32
fillins = 10
solver = Normal
Matrix Compiler1: 2.03 KB object code size  1.1/0.6/[0.3]
Matrix Compiler2: 2.64 KB object code size  1.4/1.5/[0.8]

