Circuit: * E:\1. Undergraduate Studies\1. Course Materials\Year_3_Semester_1\ECE331\ece331-labs\lab5-sims\classAB_transient_response.asc

WARNING: Less than two connections to node X1:V2.  This node is used by R:X1:4.
WARNING: Less than two connections to node X1:V1.  This node is used by R:X1:5.
Direct Newton iteration for .op point succeeded.
Ignoring empty pin current: Ix(u1:1)
Ignoring empty pin current: Ix(u1:2)
Ignoring empty pin current: Ix(u1:3)
Ignoring empty pin current: Ix(u2:1)
Ignoring empty pin current: Ix(u2:2)
Ignoring empty pin current: Ix(u2:3)
Ignoring empty pin current: Ix(u1:1)
Ignoring empty pin current: Ix(u1:2)
Ignoring empty pin current: Ix(u1:3)
Ignoring empty pin current: Ix(u2:1)
Ignoring empty pin current: Ix(u2:2)
Ignoring empty pin current: Ix(u2:3)

Date: Mon Nov 18 18:59:49 2019
Total elapsed time: 3.163 seconds.

tnom = 27
temp = 27
method = modified trap
totiter = 123639
traniter = 123604
tranpoints = 57029
accept = 54609
rejected = 2420
matrix size = 38
fillins = 23
solver = Normal
Matrix Compiler1: 3.04 KB object code size  2.3/1.1/[0.6]
Matrix Compiler2: off  [1.0]/1.7/1.0

