Circuit: * Z:\home\pranshumalik14\Documents\academics\ece331\ece331-labs\lab5-sims\Draft1.asc

WARNING: Less than two connections to node X1:V2.  This node is used by R:X1:4.
WARNING: Less than two connections to node X1:V1.  This node is used by R:X1:5.
Direct Newton iteration for .op point succeeded.
Ignoring empty pin current: Ix(u1:1)
Ignoring empty pin current: Ix(u1:2)
Ignoring empty pin current: Ix(u1:3)
Ignoring empty pin current: Ix(u2:1)
Ignoring empty pin current: Ix(u2:2)
Ignoring empty pin current: Ix(u2:3)
Ignoring empty pin current: Ix(u1:1)
Ignoring empty pin current: Ix(u1:2)
Ignoring empty pin current: Ix(u1:3)
Ignoring empty pin current: Ix(u2:1)
Ignoring empty pin current: Ix(u2:2)
Ignoring empty pin current: Ix(u2:3)

Date: Mon Nov 18 17:55:53 2019
Total elapsed time: 0.763 seconds.

tnom = 27
temp = 27
method = modified trap
totiter = 123609
traniter = 123574
tranpoints = 57090
accept = 54635
rejected = 2455
matrix size = 38
fillins = 23
solver = Normal
Matrix Compiler1: 3.04 KB object code size  1.9/1.1/[0.8]
Matrix Compiler2: off  [1.0]/1.1/1.3

