Circuit: * E:\1. Undergraduate Studies\1. Course Materials\Year_3_Semester_1\ECE331\ece331-labs\lab5-sims\PA_classA.asc

Direct Newton iteration for .op point succeeded.

Date: Mon Nov 18 19:12:13 2019
Total elapsed time: 1.404 seconds.

tnom = 27
temp = 27
method = modified trap
totiter = 100072
traniter = 100035
tranpoints = 50018
accept = 50018
rejected = 0
matrix size = 33
fillins = 10
solver = Normal
Matrix Compiler1: 2.08 KB object code size  1.6/0.9/[0.4]
Matrix Compiler2: 2.80 KB object code size  0.8/1.5/[0.8]

