Circuit: * E:\1. Undergraduate Studies\1. Course Materials\Year_3_Semester_1\ECE331\ece331-labs\lab5-sims\PA_classAB.asc

WARNING: Less than two connections to node V2.  This node is used by R4.
WARNING: Less than two connections to node V1.  This node is used by R5.
Direct Newton iteration for .op point succeeded.

Date: Mon Nov 18 19:06:41 2019
Total elapsed time: 2.343 seconds.

tnom = 27
temp = 27
method = modified trap
totiter = 123639
traniter = 123604
tranpoints = 57029
accept = 54609
rejected = 2420
matrix size = 38
fillins = 23
solver = Normal
Matrix Compiler1: 3.04 KB object code size  2.6/1.4/[0.7]
Matrix Compiler2: off  [1.1]/1.9/1.2

