Circuit: * C:\users\pranshumalik14\My Documents\academics\ece331-labs\lab2-sims\nmos_cascode_current_mirror_dc_out_swing.asc

Model "ald1101": Oxide thickness thinner than recommended for a level 2 MOSFET.
Instance "m3": Length shorter than recommended for a level 2 MOSFET.
Instance "m2": Length shorter than recommended for a level 2 MOSFET.
Instance "m1": Length shorter than recommended for a level 2 MOSFET.
Vo: Missing value, assumed 0V @ DC

Date: Sat Oct 05 17:45:05 2019
Total elapsed time: 0.059 seconds.

tnom = 27
temp = 27
method = trap
totiter = 677
traniter = 0
tranpoints = 0
accept = 0
rejected = 0
matrix size = 14
fillins = 0
solver = Normal
Matrix Compiler1: 804 bytes object code size  0.7/0.6/[0.6]
Matrix Compiler2: 1.08 KB object code size  0.6/0.7/[0.6]

