Circuit: * C:\users\pranshumalik14\My Documents\academics\ece331-labs\lab2-sims\nmos_cs_amp_pmos_cur_mirror_load.asc

Model "ald1102": Oxide thickness thinner than recommended for a level 2 MOSFET.
Instance "m3": Length shorter than recommended for a level 2 MOSFET.
Instance "m2": Length shorter than recommended for a level 2 MOSFET.
Model "ald1101": Oxide thickness thinner than recommended for a level 2 MOSFET.
Instance "m1": Length shorter than recommended for a level 2 MOSFET.
Direct Newton iteration for .op point succeeded.

Date: Mon Oct 07 23:39:57 2019
Total elapsed time: 0.084 seconds.

tnom = 27
temp = 27
method = modified trap
totiter = 2092
traniter = 2083
tranpoints = 1042
accept = 1042
rejected = 0
matrix size = 12
fillins = 0
solver = Normal
Matrix Compiler1: 696 bytes object code size  0.8/0.6/[0.6]
Matrix Compiler2: 1.04 KB object code size  0.6/0.7/[0.6]

