Circuit: * E:\1. Undergraduate Studies\1. Course Materials\Year_3_Semester_1\ECE331\ece331-labs\lab2-sims\nmos_cascode_curr_mirr_dc_out_swing.asc

Model "ald1101": Oxide thickness thinner than recommended for a level 2 MOSFET.
Instance "m3": Length shorter than recommended for a level 2 MOSFET.
Instance "m2": Length shorter than recommended for a level 2 MOSFET.
Instance "m1": Length shorter than recommended for a level 2 MOSFET.
Vo: Missing value, assumed 0V @ DC

Date: Tue Oct 08 09:28:04 2019
Total elapsed time: 0.302 seconds.

tnom = 27
temp = 27
method = trap
totiter = 677
traniter = 0
tranpoints = 0
accept = 0
rejected = 0
matrix size = 14
fillins = 0
solver = Normal
Matrix Compiler1: 804 bytes object code size  0.4/0.2/[0.2]
Matrix Compiler2: 1.08 KB object code size  0.2/0.3/[0.2]

