Circuit: * E:\1. Undergraduate Studies\1. Course Materials\Year_3_Semester_1\ECE331\ece331-labs\lab2-sims\nmos_cs_amp_pmos_cur_mirror_load.asc

Model "ald1102": Oxide thickness thinner than recommended for a level 2 MOSFET.
Instance "m3": Length shorter than recommended for a level 2 MOSFET.
Instance "m2": Length shorter than recommended for a level 2 MOSFET.
Model "ald1101": Oxide thickness thinner than recommended for a level 2 MOSFET.
Instance "m1": Length shorter than recommended for a level 2 MOSFET.

Date: Tue Oct 08 09:18:47 2019
Total elapsed time: 0.578 seconds.

tnom = 27
temp = 27
method = trap
totiter = 10009
traniter = 0
tranpoints = 0
accept = 0
rejected = 0
matrix size = 12
fillins = 0
solver = Normal
Matrix Compiler1: 696 bytes object code size  0.6/0.4/[0.3]
Matrix Compiler2: 1.04 KB object code size  0.4/0.5/[0.4]

