Circuit: * E:\1. Undergraduate Studies\1. Course Materials\Year_3_Semester_1\ECE331\ece331-labs\lab2-sims\nmos_curr_mirr_dc_out_swing.asc

Model "ald1101": Oxide thickness thinner than recommended for a level 2 MOSFET.
Instance "m2": Length shorter than recommended for a level 2 MOSFET.
Instance "m1": Length shorter than recommended for a level 2 MOSFET.
Vo: Missing value, assumed 0V @ DC

Date: Tue Oct 08 09:23:35 2019
Total elapsed time: 0.424 seconds.

tnom = 27
temp = 27
method = trap
totiter = 10008
traniter = 0
tranpoints = 0
accept = 0
rejected = 0
matrix size = 9
fillins = 0
solver = Normal
Matrix Compiler1: 474 bytes object code size  0.2/0.1/[0.1]
Matrix Compiler2: 661 bytes object code size  0.1/0.2/[0.1]

