Circuit: * E:\1. Undergraduate Studies\1. Course Materials\Year_3_Semester_1\ECE331\ece331-labs\lab1-sims\ac_small_sig_M3.asc

Model "ald1101": Oxide thickness thinner than recommended for a level 2 MOSFET.
Instance "m3": Length shorter than recommended for a level 2 MOSFET.
Direct Newton iteration for .op point succeeded.

Date: Tue Sep 24 20:14:04 2019
Total elapsed time: 0.572 seconds.

tnom = 27
temp = 27
method = modified trap
totiter = 2088
traniter = 2083
tranpoints = 1042
accept = 1042
rejected = 0
matrix size = 7
fillins = 0
solver = Normal
Matrix Compiler1: 232 bytes object code size  0.3/0.2/[0.2]
Matrix Compiler2: 481 bytes object code size  0.2/0.3/[0.2]

