Circuit: * Z:\home\pranshumalik14\Documents\academics\ece331-labs\lab1-sims\ac_small_sig_M1.asc

Model "ald1101": Oxide thickness thinner than recommended for a level 2 MOSFET.
Instance "m1": Length shorter than recommended for a level 2 MOSFET.
Direct Newton iteration for .op point succeeded.

Date: Tue Sep 24 02:23:22 2019
Total elapsed time: 0.077 seconds.

tnom = 27
temp = 27
method = modified trap
totiter = 2087
traniter = 2083
tranpoints = 1042
accept = 1042
rejected = 0
matrix size = 7
fillins = 0
solver = Normal
Matrix Compiler1: 232 bytes object code size  0.6/0.6/[0.6]
Matrix Compiler2: 481 bytes object code size  0.6/0.6/[0.6]

