Circuit: * Z:\home\pranshumalik14\Documents\academics\ece331-labs\lab1-sims\ac_small_sig_M2.asc

Model "ald1102": Oxide thickness thinner than recommended for a level 2 MOSFET.
Instance "m2": Length shorter than recommended for a level 2 MOSFET.
Direct Newton iteration for .op point succeeded.

Date: Tue Sep 24 02:38:33 2019
Total elapsed time: 0.086 seconds.

tnom = 27
temp = 27
method = modified trap
totiter = 2088
traniter = 2083
tranpoints = 1042
accept = 1042
rejected = 0
matrix size = 7
fillins = 0
solver = Normal
Matrix Compiler1: 268 bytes object code size  0.6/0.6/[0.6]
Matrix Compiler2: 549 bytes object code size  0.6/0.6/[0.6]

