Circuit: * Z:\home\pranshumalik14\Documents\academics\ece331-labs\lab1-sims\dc_sweep_M3.asc

Model "ald1101": Oxide thickness thinner than recommended for a level 2 MOSFET.
Instance "m3": Length shorter than recommended for a level 2 MOSFET.

Date: Tue Sep 24 01:48:25 2019
Total elapsed time: 0.092 seconds.

tnom = 27
temp = 27
method = trap
totiter = 2404
traniter = 0
tranpoints = 0
accept = 0
rejected = 0
matrix size = 7
fillins = 0
solver = Normal
Matrix Compiler1: 232 bytes object code size  0.6/0.5/[0.5]
Matrix Compiler2: 481 bytes object code size  0.5/0.6/[0.5]

