Circuit: * E:\1. Undergraduate Studies\1. Course Materials\Year_3_Semester_1\ECE331\ece331-labs\lab1-sims\dc_sweep_M2.asc

Model "ald1102": Oxide thickness thinner than recommended for a level 2 MOSFET.
Instance "m2": Length shorter than recommended for a level 2 MOSFET.

Date: Tue Sep 24 09:26:33 2019
Total elapsed time: 0.752 seconds.

tnom = 27
temp = 27
method = trap
totiter = 10009
traniter = 0
tranpoints = 0
accept = 0
rejected = 0
matrix size = 7
fillins = 0
solver = Normal
Matrix Compiler1: 268 bytes object code size  0.2/0.1/[0.1]
Matrix Compiler2: 549 bytes object code size  0.1/0.2/[0.1]

