Circuit: * Z:\home\pranshumalik14\Documents\academics\ece331-labs\lab1-sims\Draft1.asc

Model "ald1101": Oxide thickness thinner than recommended for a level 2 MOSFET.
Instance "m2": Length shorter than recommended for a level 2 MOSFET.
Instance "m1": Length shorter than recommended for a level 2 MOSFET.

Date: Sat Oct 05 13:34:18 2019
Total elapsed time: 0.186 seconds.

tnom = 27
temp = 27
method = trap
totiter = 10008
traniter = 0
tranpoints = 0
accept = 0
rejected = 0
matrix size = 9
fillins = 0
solver = Normal
Matrix Compiler1: 474 bytes object code size  0.7/0.6/[0.5]
Matrix Compiler2: 661 bytes object code size  0.5/0.6/[0.5]

